recall.rec: written by SWAT+ editor v1.2.3 on 2021-01-24 15:52
      id  name               rec_typ  file              
       1  pt002                    4  pt002             
       2  pt004                    4  pt004             
       3  pt006                    4  pt006             
       4  pt008                    4  pt008             
       5  pt010                    4  pt010             
       6  pt012                    4  pt012             
       7  pt014                    4  pt014             
       8  pt016                    4  pt016             
       9  pt018                    4  pt018             
      10  pt020                    4  pt020             
      11  pt022                    4  pt022             
      12  pt026                    4  pt026             
      13  pt028                    4  pt028             
      14  pt030                    4  pt030             
      15  pt032                    4  pt032             
      16  pt034                    4  pt034             
      17  pt036                    4  pt036             
      18  pt038                    4  pt038             
      19  pt040                    4  pt040             
      20  pt042                    4  pt042             
      21  pt044                    4  pt044             
      22  pt046                    4  pt046             
      23  pt048                    4  pt048             
      24  pt050                    4  pt050             
      25  pt052                    4  pt052             
      26  pt054                    4  pt054             
      27  pt056                    4  pt056             
      28  pt058                    4  pt058             
      29  pt060                    4  pt060             
      30  pt062                    4  pt062             
      31  pt064                    4  pt064             
      32  pt066                    4  pt066             
      33  pt068                    4  pt068             
      34  pt070                    4  pt070             
      35  pt074                    4  pt074             
      36  pt078                    4  pt078             
      37  pt080                    4  pt080             
      38  pt082                    4  pt082             
      39  pt084                    4  pt084             
      40  pt088                    4  pt088             
      41  pt090                    4  pt090             
      42  pt092                    4  pt092             
      43  pt094                    4  pt094             
      44  pt096                    4  pt096             
      45  pt098                    4  pt098             
      46  pt100                    4  pt100             
      47  pt102                    4  pt102             
      48  pt104                    4  pt104             
      49  pt106                    4  pt106             
      50  pt108                    4  pt108             
      51  pt110                    4  pt110             
      52  pt112                    4  pt112             
      53  pt114                    4  pt114             
      54  pt116                    4  pt116             
      55  pt118                    4  pt118             
      56  pt120                    4  pt120             
      57  pt122                    4  pt122             
      58  pt124                    4  pt124             
      59  pt126                    4  pt126             
      60  pt128                    4  pt128             
      61  pt130                    4  pt130             
      62  pt132                    4  pt132             
      63  pt134                    4  pt134             
      64  pt136                    4  pt136             
      65  pt138                    4  pt138             
      66  pt140                    4  pt140             
      67  pt142                    4  pt142             
      68  pt144                    4  pt144             
      69  pt146                    4  pt146             
      70  pt148                    4  pt148             
      71  pt150                    4  pt150             
      72  pt152                    4  pt152             
      73  pt154                    4  pt154             
      74  pt156                    4  pt156             
      75  pt158                    4  pt158             
      76  pt160                    4  pt160             
      77  pt162                    4  pt162             
      78  pt164                    4  pt164             
      79  pt166                    4  pt166             
      80  pt168                    4  pt168             
      81  pt170                    4  pt170             
      82  pt172                    4  pt172             
      83  pt174                    4  pt174             
      84  pt176                    4  pt176             
      85  pt178                    4  pt178             
      86  pt180                    4  pt180             
      87  pt182                    4  pt182             
      88  pt184                    4  pt184             
      89  pt186                    4  pt186             
      90  pt188                    4  pt188             
      91  pt190                    4  pt190             
      92  pt192                    4  pt192             
      93  pt194                    4  pt194             
      94  pt196                    4  pt196             
      95  pt198                    4  pt198             
      96  pt200                    4  pt200             
      97  pt202                    4  pt202             
      98  pt204                    4  pt204             
      99  pt206                    4  pt206             
     100  pt208                    4  pt208             
     101  pt210                    4  pt210             
     102  pt212                    4  pt212             
     103  pt214                    4  pt214             
     104  pt216                    4  pt216             
     105  pt218                    4  pt218             
     106  pt220                    4  pt220             
     107  pt222                    4  pt222             
     108  pt224                    4  pt224             
     109  pt226                    4  pt226             
     110  pt228                    4  pt228             
     111  pt232                    4  pt232             
     112  pt234                    4  pt234             
     113  pt236                    4  pt236             
     114  pt238                    4  pt238             
     115  pt240                    4  pt240             
     116  pt242                    4  pt242             
     117  pt244                    4  pt244             
     118  pt246                    4  pt246             
     119  pt248                    4  pt248             
     120  pt250                    4  pt250             
     121  pt252                    4  pt252             
     122  pt254                    4  pt254             
     123  pt256                    4  pt256             
     124  pt258                    4  pt258             
     125  pt260                    4  pt260             
     126  pt262                    4  pt262             
     127  pt264                    4  pt264             
     128  pt266                    4  pt266             
     129  pt268                    4  pt268             
     130  pt270                    4  pt270             
     131  pt272                    4  pt272             
     132  pt274                    4  pt274             
     133  pt276                    4  pt276             
     134  pt278                    4  pt278             
     135  pt280                    4  pt280             
     136  pt282                    4  pt282             
     137  pt284                    4  pt284             
     138  pt286                    4  pt286             
     139  pt288                    4  pt288             
     140  pt290                    4  pt290             
     141  pt292                    4  pt292             
     142  pt294                    4  pt294             
     143  pt296                    4  pt296             
     144  pt298                    4  pt298             
     145  pt300                    4  pt300             
     146  pt302                    4  pt302             
     147  pt304                    4  pt304             
     148  pt306                    4  pt306             
     149  pt308                    4  pt308             
     150  pt310                    4  pt310             
     151  pt312                    4  pt312             
     152  pt314                    4  pt314             
     153  pt316                    4  pt316             
     154  pt318                    4  pt318             
     155  pt320                    4  pt320             
     156  pt322                    4  pt322             
     157  pt324                    4  pt324             
     158  pt326                    4  pt326             
     159  pt328                    4  pt328             
     160  pt330                    4  pt330             
     161  pt332                    4  pt332             
     162  pt334                    4  pt334             
     163  pt336                    4  pt336             
     164  pt338                    4  pt338             
     165  pt340                    4  pt340             
     166  pt342                    4  pt342             
     167  pt344                    4  pt344             
     168  pt346                    4  pt346             
     169  pt348                    4  pt348             
     170  pt350                    4  pt350             
     171  pt352                    4  pt352             
     172  pt354                    4  pt354             
     173  pt356                    4  pt356             
     174  pt358                    4  pt358             
     175  pt360                    4  pt360             
     176  pt362                    4  pt362             
     177  pt364                    4  pt364             
     178  pt366                    4  pt366             
     179  pt368                    4  pt368             
     180  pt370                    4  pt370             
     181  pt372                    4  pt372             
     182  pt374                    4  pt374             
     183  pt376                    4  pt376             
     184  pt378                    4  pt378             
     185  pt380                    4  pt380             
     186  pt382                    4  pt382             
     187  pt384                    4  pt384             
     188  pt386                    4  pt386             
     189  pt388                    4  pt388             
     190  pt390                    4  pt390             
     191  pt392                    4  pt392             
     192  pt394                    4  pt394             
     193  pt396                    4  pt396             
     194  pt398                    4  pt398             
     195  pt400                    4  pt400             
     196  pt402                    4  pt402             
     197  pt404                    4  pt404             
     198  pt406                    4  pt406             
     199  pt408                    4  pt408             
     200  pt410                    4  pt410             
     201  pt412                    4  pt412             
     202  pt414                    4  pt414             
     203  pt416                    4  pt416             
     204  pt418                    4  pt418             
     205  pt420                    4  pt420             
     206  pt422                    4  pt422             
     207  pt424                    4  pt424             
     208  pt426                    4  pt426             
     209  pt428                    4  pt428             
     210  pt430                    4  pt430             
     211  pt432                    4  pt432             
     212  pt434                    4  pt434             
     213  pt436                    4  pt436             
     214  pt438                    4  pt438             
     215  pt440                    4  pt440             
     216  pt442                    4  pt442             
     217  pt444                    4  pt444             
     218  pt446                    4  pt446             
     219  pt448                    4  pt448             
     220  pt450                    4  pt450             
     221  pt452                    4  pt452             
     222  pt454                    4  pt454             
     223  pt456                    4  pt456             
     224  pt458                    4  pt458             
     225  pt460                    4  pt460             
     226  pt462                    4  pt462             
     227  pt464                    4  pt464             
     228  pt466                    4  pt466             
     229  pt468                    4  pt468             
     230  pt470                    4  pt470             
     231  pt472                    4  pt472             
     232  pt474                    4  pt474             
     233  pt476                    4  pt476             
     234  pt478                    4  pt478             
     235  pt480                    4  pt480             
     236  pt482                    4  pt482             
     237  pt484                    4  pt484             
     238  pt486                    4  pt486             
     239  pt488                    4  pt488             
     240  pt490                    4  pt490             
